# Created by the Bilbao Crystallographic Server
# http://www.cryst.ehu.es
# Date: 24/06/2020 16:40:10

# AMS_DATA (2).vesta -- non-magnetic -- in P1.1

data_6sKVglzq
_audit_creation_date               2020-06-24
_audit_creation_method             "Bilbao Crystallographic Server"
_symmetry_Int_Tables_number        1
#_symmetry_space_group_name_H-M    "P11'"
_cell_length_a                     8.640000
_cell_length_b                     8.640000
_cell_length_c                     8.873000
_cell_angle_alpha                  90.000000
_cell_angle_beta                   90.000000
_cell_angle_gamma                  90.000000

loop_
_symmetry_equiv_pos_site_id
_symmetry_equiv_pos_as_xyz
   1   x,y,z

loop_
_atom_site_label
_atom_site_type_symbol
_atom_site_fract_x
_atom_site_fract_y
_atom_site_fract_z
_atom_site_occupancy
Al1_1 Al 0.00000 0.50000 0.75000 1.0000
Al1_2 Al 0.50000 0.00000 0.25000 1.0000
Be1_1 Be 0.00000 0.50000 0.25000 1.0000
Be1_2 Be 0.50000 0.00000 0.75000 1.0000
Cl1_1 Cl 0.00000 0.00000 0.00000 1.0000
Cl1_2 Cl 0.50000 0.50000 0.50000 1.0000
Na1_1 Na 0.15630 0.19720 0.18180 1.0000
Na1_2 Na 0.65630 0.69720 0.68180 1.0000
Na1_3 Na 0.84370 0.80280 0.18180 1.0000
Na1_4 Na 0.34370 0.30280 0.68180 1.0000
Na1_5 Na 0.19720 0.84370 0.81820 1.0000
Na1_6 Na 0.69720 0.34370 0.31820 1.0000
Na1_7 Na 0.80280 0.15630 0.81820 1.0000
Na1_8 Na 0.30280 0.65630 0.31820 1.0000
O1_1 O 0.15040 0.13430 0.44170 1.0000
O1_2 O 0.65040 0.63430 0.94170 1.0000
O1_3 O 0.84960 0.86570 0.44170 1.0000
O1_4 O 0.34960 0.36570 0.94170 1.0000
O1_5 O 0.13430 0.84960 0.55830 1.0000
O1_6 O 0.63430 0.34960 0.05830 1.0000
O1_7 O 0.86570 0.15040 0.55830 1.0000
O1_8 O 0.36570 0.65040 0.05830 1.0000
O2_1 O 0.34720 0.03850 0.64880 1.0000
O2_2 O 0.84720 0.53850 0.14880 1.0000
O2_3 O 0.65280 0.96150 0.64880 1.0000
O2_4 O 0.15280 0.46150 0.14880 1.0000
O2_5 O 0.03850 0.65280 0.35120 1.0000
O2_6 O 0.53850 0.15280 0.85120 1.0000
O2_7 O 0.96150 0.34720 0.35120 1.0000
O2_8 O 0.46150 0.84720 0.85120 1.0000
O3_1 O 0.42560 0.14860 0.13770 1.0000
O3_2 O 0.92560 0.64860 0.63770 1.0000
O3_3 O 0.57440 0.85140 0.13770 1.0000
O3_4 O 0.07440 0.35140 0.63770 1.0000
O3_5 O 0.14860 0.57440 0.86230 1.0000
O3_6 O 0.64860 0.07440 0.36230 1.0000
O3_7 O 0.85140 0.42560 0.86230 1.0000
O3_8 O 0.35140 0.92560 0.36230 1.0000
Si1_1 Si 0.01270 0.25330 0.49580 1.0000
Si1_2 Si 0.51270 0.75330 0.99580 1.0000
Si1_3 Si 0.98730 0.74670 0.49580 1.0000
Si1_4 Si 0.48730 0.24670 0.99580 1.0000
Si1_5 Si 0.25330 0.98730 0.50420 1.0000
Si1_6 Si 0.75330 0.48730 0.00420 1.0000
Si1_7 Si 0.74670 0.01270 0.50420 1.0000
Si1_8 Si 0.24670 0.51270 0.00420 1.0000
